/*--------------------------------*- C++ -*----------------------------------*\
| =========                 |                                                 |
| \\      /  F ield         | OpenFOAM: The Open Source CFD Toolbox           |
|  \\    /   O peration     | Version:  v2112                                 |
|   \\  /    A nd           | Website:  www.openfoam.com                      |
|    \\/     M anipulation  |                                                 |
\*---------------------------------------------------------------------------*/
FoamFile
{
    version     2.0;
    format      ascii;
    class       dictionary;
    object      controlDict;
}
// * * * * * * * * * * * * * * * * * * * * * * * * * * * * * * * * * * * * * //

libs            (overset fvMotionSolvers);

application     overInterDyMFoam;

startFrom       latestTime;

startTime       0.0;

stopAt          endTime;

endTime         25;

deltaT          0.001;

writeControl    adjustable;

writeInterval   0.1;

purgeWrite      0;

writeFormat     ascii;

writePrecision  12;

writeCompression on;

timeFormat      general;

timePrecision   6;

runTimeModifiable yes;

adjustTimeStep  yes;

maxCo           0.5;

maxAlphaCo      0.5;

maxDeltaT       0.01;

functions
{
    interfaceHeight1
    {
        type            interfaceHeight;
        
        libs            ("libfieldFunctionObjects.so");
        
        locations       ((-1 0.3 0.5) (1.6 0.3 0.5));
        alpha           alpha.water;
        
        writeControl   timeStep;
        writeInterval  5;
    }
}


// ************************************************************************* //
